LAMMPS (3 Mar 2020)
## binning x:60-160, y:0.0-34.4, z:2.8-29.0
## binning x:60-90 x:120-150

############################################################
#####	 	    Argon sandwich	   	   #########
############################################################
variable		T equal 1.0
variable 		V equal vol
variable 		dt equal 0.002

units			lj
atom_style		bond
special_bonds 		fene

dimension 		3
boundary		f p f

read_data         	tank_atomdata
  orthogonal box = (0 0 0) to (39 34.5 48)
  reading atoms ...
  40455 atoms
  scanning bonds ...
  reading bonds ...
  26040 bonds
#read_restart 		water.restart.mpiio

############################################################
#############INTERACTION PARAMETERS#########################
group                   bread     type 2
10695 atoms in group bread
group                   ham       type 1
29760 atoms in group ham

mass                    2       1.0  ## atomic mass of platinum
mass                    1       1.0  ## atomic mass of platinum

neighbor        	0.3 bin
neigh_modify		every 1 delay 10 check yes
################### L-J potential #####################
pair_style              lj/cut  2.5

pair_coeff              1 1  1.0 1.0 2.5
pair_coeff              1 2  0.8 1.0 2.5
pair_coeff              2 2  1.0 1.0 2.5
#################### FENE bond #########################
bond_style 		fene
bond_coeff 		1 10.2478 1.4 1.0 1.0
#################### Harmonic potential ##################
fix 			wall bread spring/self 10000.0

thermo 			10
min_style 		fire
min_modify 		dmax 0.01
minimize 		1.0e-5 1.0e-7 500 10000
  update every 1 steps, delay 0 steps, check yes
  Parameters for fire:
    dmax delaystep dtgrow dtshrink alpha0 alphashrink tmax tmin    integrator halfstepback
    0.01        20    1.1      0.5   0.25        0.99   10 0.02 eulerimplicit          yes
Step Temp E_pair E_mol TotEng Press
0            0   -4.0144327    5.6773841    1.6629514   -2.8218986
Loop time of 5.82399 on 32 procs for 500 steps with 40455 atoms

Minimization stats:
  Stopping criterion = max iterations
  Energy initial, next-to-last, final =
  Force two-norm initial, final = 15728.6 238.926
  Force max component initial, final = 591.327 11.196
  Final line search alpha, max atom move = 0 0
  Iterations, force evaluations = 500 530

############################################################
#############EQUILIBRATION PARAMETERS######################
velocity 		all create 1 12345
compute 		myTemp all temp
fix			1 all nvt temp 1 1 100.0
fix 			2 all langevin 1 1 10 100000
fix 			30 all wall/reflect zhi EDGE
fix 			300 all wall/reflect zlo EDGE
fix 			40 all wall/reflect xhi EDGE
fix 			400 all wall/reflect xlo EDGE
timestep 		0.002
thermo 			100

dump 			1 all custom 200 equ_tank.dat id type x y z
run 			50000
Step Temp E_pair E_mol TotEng Press
500            1   -4.3905984    5.2683814    2.3777458  0.050387289
Averages over the last 251 of 501 rows, steps 25500 to 50500:
Temp E_pair E_mol TotEng Press
0.999049 -4.27699 5.5746 2.79614 0.112258
Loop time of 499.9 on 32 procs for 50000 steps with 40455 atoms

unfix 			1
unfix 			2
unfix 			30
unfix 			300
unfix 			40
unfix 			400
undump 			1
###########################################################
############### Post parameters############################
reset_timestep  	0
velocity 		all create $T 293849 mom yes rot yes dist gaussian
velocity 		all create 1 293849 mom yes rot yes dist gaussian
fix 			1 all nvt temp $T $T 0.3
fix 			1 all nvt temp 1 $T 0.3
fix 			1 all nvt temp 1 1 0.3
fix_modify 		1 temp myTemp
fix 			30 all wall/reflect zhi EDGE
fix 			300 all wall/reflect zlo EDGE
fix 			40 all wall/reflect xhi EDGE
fix 			400 all wall/reflect xlo EDGE

#compute 		bins ham chunk/atom bin/3d x 60.0 1.149 y 0.0 1.143 z 2.8 1.1391 bound #			x 60.0 160.0 bound y 0.0 34.4 bound z 2.8 29.0
#fix  			d ham ave/chunk 2 5 10 bins density/number norm sample #			file small_bond_bins_dens.dat

#compute 		bins1 ham chunk/atom bin/3d x 60.0 1 y 0.0 1.1467 z 2.8 1.1392 bound #			x 60.0 90.0 bound y 0.0 34.4 bound z 2.8 29.0
#fix  			d1 ham ave/chunk 2 5 40 bins1 density/number norm sample #			file left_small_bond_bins_dens.dat

#compute 		bins2 ham chunk/atom bin/3d x 120.0 1 y 0.0 1.1467 z 2.8 1.1392 bound #			x 120.0 150.0 bound y 0.0 34.4 bound z 2.8 29.0
#fix  			d2 ham ave/chunk 2 5 40 bins2 density/number norm sample #			file right_small_bond_bins_dens.dat

thermo_style    	custom step temp pe etotal
thermo_modify	        temp myTemp
thermo			100
#fix            		extra ham print 1000 "$(step) $(temp) $(pe)" append iteration_info.dat #			screen no

#restart     		100000 water.restart.mpiio
dump			1 all custom 200 tank.dat id type x y z
run			100000
Step Temp PotEng TotEng
0            1    1.3007729    2.8007359
Averages over the last 501 of 1001 rows, steps 50000 to 100000:
Temp PotEng TotEng
1.00003 1.29733 2.79733
Loop time of 932.938 on 32 procs for 100000 steps with 40455 atoms
